/*--------------------------------*- C++ -*----------------------------------*\
| =========                 |                                                 |
| \\      /  F ield         | OpenFOAM: The Open Source CFD Toolbox           |
|  \\    /   O peration     | Version:  2.4.x                                 |
|   \\  /    A nd           | Web:      www.OpenFOAM.org                      |
|    \\/     M anipulation  |                                                 |
\*---------------------------------------------------------------------------*/
FoamFile
{
    version     2.0;
    format      ascii;
    class       volVectorField;
    object      U;
}
// * * * * * * * * * * * * * * * * * * * * * * * * * * * * * * * * * * * * * //

dimensions      [0 1 -1 0 0 0 0];

internalField   uniform (1 0 0);

boundaryField
{
    prof_extruded
    {
        type            fixedValue;
        value           uniform (0 0 0);
    }
    free_extruded
    {
        type            slip;
    }
    in_extruded
    {
        type            fixedValue;
        value           uniform (1 0 0);
    }
    out_extruded
    {
        type            inletOutlet;
        inletValue      uniform (0 0 0);
        value           uniform (1 0 0);
    }
    defaultFaces
    {
        type            empty;
    }
}

// ************************************************************************* //
