/*--------------------------------*- C++ -*----------------------------------*\
| =========                 |                                                 |
| \\      /  F ield         | OpenFOAM: The Open Source CFD Toolbox           |
|  \\    /   O peration     | Version:  2.4.x                                 |
|   \\  /    A nd           | Web:      www.OpenFOAM.org                      |
|    \\/     M anipulation  |                                                 |
\*---------------------------------------------------------------------------*/
FoamFile
{
    version     2.0;
    format      ascii;
    class       dictionary;
    object      controlDict;
}
// * * * * * * * * * * * * * * * * * * * * * * * * * * * * * * * * * * * * * //

application     simpleFoam;

startFrom       latestTime;

startTime       0;

stopAt          endTime;

endTime         1000;

deltaT          1;

writeControl    timeStep;

writeInterval   100;

purgeWrite      0;

//- Uncomment to have regular (every 2 hours of run time) restart files
//secondaryWriteControl    cpuTime; // runtime
//secondaryWriteInterval   7200;    // seconds
//secondaryPurgeWrite      1;       // keep all but last dump
// ************************************************************************* //

functions
{

///////////////////////////////////////////////////////////////////////////
minmaxdomainCyl
{
	type fieldMinMax;
	//type banana;

	functionObjectLibs ("libfieldFunctionObjects.so");

	enabled true;

	mode component;

	outputControl timeStep;
	outputInterval 1;

	log true;

      //fields (p U k omega);
	fields (p U);
}
///////////////////////////////////////////////////////////////////////////

forceCoeffs1
{
    type        forceCoeffs;

    functionObjectLibs ( "libforces.so" );

    //outputControl   outputTime;

    outputControl timeStep;
    outputInterval 1;

    log         yes;

    patches     ( stlSurface_OpenSCAD_Model );
    pName       p;
    UName       U;
    rhoName     rhoInf;      // Indicates incompressible
    log         true;
    rhoInf      1;           // Redundant for incompressible
    liftDir     (0 1 0);
    dragDir     (1 0 0);
    CofR        (0.25 0 0);  // Axle midpoint on ground
    pitchAxis   (0 0 1);
    magUInf     40;
    lRef        1;        // Wheelbase length
    Aref        1;        // Estimated

/* - Uncomment to have forceCoeffs calculated in 20 bins
    binData
    {
        nBin        20;          // output data into 20 bins
        direction   (1 0 0);     // bin direction
        format      gnuplot;
        cumulative  yes;
    }
*/
}

};
