/*--------------------------------*- C++ -*----------------------------------*\
| =========                 |                                                 |
| \\      /  F ield         | OpenFOAM: The Open Source CFD Toolbox           |
|  \\    /   O peration     | Version:  2.4.x                                 |
|   \\  /    A nd           | Web:      www.OpenFOAM.org                      |
|    \\/     M anipulation  |                                                 |
\*---------------------------------------------------------------------------*/
FoamFile
{
    version     2.0;
    format      ascii;
    class       dictionary;
    object      controlDict;
}
// * * * * * * * * * * * * * * * * * * * * * * * * * * * * * * * * * * * * * //

application     icoFoam;

startFrom       startTime;

startTime       0;

stopAt          endTime;

endTime         100;

deltaT          0.005;

writeControl    adjustableRunTime;
writeInterval   0.5;

purgeWrite      0;

writeFormat     ascii;

writePrecision  6;

writeCompression off;

timeFormat      general;

timePrecision   6;

runTimeModifiable true;

// ************************************************************************* //

functions
{

///////////////////////////////////////////////////////////////////////////
minmaxdomainCyl
{
	type fieldMinMax;
	//type banana;

	functionObjectLibs ("libfieldFunctionObjects.so");

	enabled true;

	mode component;

	outputControl timeStep;
	outputInterval 1;

	log true;

      //fields (p U k omega);
	fields (p U);
}
///////////////////////////////////////////////////////////////////////////

forceCoeffs1
{
    type        forceCoeffs;

    functionObjectLibs ( "libforces.so" );

    //outputControl   outputTime;

    outputControl timeStep;
    outputInterval 1;

    log         yes;

    patches     ( prof_extruded );
    pName       p;
    UName       U;
    rhoName     rhoInf;      // Indicates incompressible
    log         true;
    rhoInf      1;           // Redundant for incompressible
    liftDir     (0 1 0);
    dragDir     (1 0 0);
    CofR        (0 0 0);  // Axle midpoint on ground
    pitchAxis   (0 0 1);
    magUInf     40;
    lRef        2;        // Wheelbase length
    Aref        1;        // Estimated

/* - Uncomment to have forceCoeffs calculated in 20 bins
    binData
    {
        nBin        20;          // output data into 20 bins
        direction   (1 0 0);     // bin direction
        format      gnuplot;
        cumulative  yes;
    }
*/
}

};

